"an N6-ubiquitinyl-[protein]-L-lysine"
  Mrv0541 01071510022D          

 30 29  0  0  0  0            999 V2000
    0.3326   -0.0519    0.0000 C   0  0  0  0  0  0  0  0  0  0  0  0
    0.3326    0.7731    0.0000 C   0  0  0  0  0  0  0  0  0  0  0  0
   -0.3819   -0.4644    0.0000 C   0  0  0  0  0  0  0  0  0  0  0  0
    1.0470    1.1856    0.0000 C   0  0  0  0  0  0  0  0  0  0  0  0
    2.5272    1.9053    0.0000 C   0  0  0  0  0  0  0  0  0  0  0  0
    0.3312   -1.6994    0.0000 C   0  0  0  0  0  0  0  0  0  0  0  0
   -0.3848   -1.2896    0.0000 C   0  0  1  0  0  0  0  0  0  0  0  0
    1.8128    2.3179    0.0000 C   0  0  0  0  0  0  0  0  0  0  0  0
    3.2418    2.3179    0.0000 N   0  0  0  0  0  0  0  0  0  0  0  0
   -1.0850   -1.6939    0.0000 N   0  0  0  0  0  0  0  0  0  0  0  0
    1.0470    2.0106    0.0000 N   0  0  0  0  0  0  0  0  0  0  0  0
    0.3229   -2.5153    0.0000 O   0  0  0  0  0  0  0  0  0  0  0  0
    1.8128    3.1427    0.0000 O   0  0  0  0  0  0  0  0  0  0  0  0
    1.0457   -1.2869    0.0000 A   0  0  0  0  0  0  0  0  0  0  0  0
   -1.7995   -1.2814    0.0000 A   0  0  0  0  0  0  0  0  0  0  0  0
    4.2843    1.8449    0.0000 A   0  0  0  0  0  0  0  0  0  0  0  0
    0.7698   -0.7515    0.0000 H   0  0  0  0  0  0  0  0  0  0  0  0
    1.1571   -0.0807    0.0000 H   0  0  0  0  0  0  0  0  0  0  0  0
   -0.4919    0.8019    0.0000 H   0  0  0  0  0  0  0  0  0  0  0  0
   -0.1046    1.4727    0.0000 H   0  0  0  0  0  0  0  0  0  0  0  0
   -1.2063   -0.4338    0.0000 H   0  0  0  0  0  0  0  0  0  0  0  0
   -0.8181    0.2358    0.0000 H   0  0  0  0  0  0  0  0  0  0  0  0
    1.4842    0.4860    0.0000 H   0  0  0  0  0  0  0  0  0  0  0  0
    1.8715    1.1568    0.0000 H   0  0  0  0  0  0  0  0  0  0  0  0
    2.3839    1.0928    0.0000 H   0  0  0  0  0  0  0  0  0  0  0  0
    2.9145    1.1769    0.0000 H   0  0  0  0  0  0  0  0  0  0  0  0
   -1.0986   -0.8759    0.0000 H   0  0  0  0  0  0  0  0  0  0  0  0
    3.2015    3.1419    0.0000 H   0  0  0  0  0  0  0  0  0  0  0  0
   -1.0850   -2.5189    0.0000 H   0  0  0  0  0  0  0  0  0  0  0  0
    0.3636    2.4727    0.0000 H   0  0  0  0  0  0  0  0  0  0  0  0
  3  7  1  0  0  0  0
 12  6  2  0  0  0  0
  7 10  1  1  0  0  0
  6  7  1  0  0  0  0
  6 14  1  0  0  0  0
 10 15  1  0  0  0  0
  3  1  1  0  0  0  0
  1  2  1  0  0  0  0
  2  4  1  0  0  0  0
  4 11  1  0  0  0  0
  5  8  1  0  0  0  0
  8 11  1  0  0  0  0
  8 13  2  0  0  0  0
  5  9  1  0  0  0  0
  9 16  1  0  0  0  0
  1 17  1  0  0  0  0
  1 18  1  0  0  0  0
  2 19  1  0  0  0  0
  2 20  1  0  0  0  0
  3 21  1  0  0  0  0
  3 22  1  0  0  0  0
  4 23  1  0  0  0  0
  4 24  1  0  0  0  0
  5 25  1  0  0  0  0
  5 26  1  0  0  0  0
  7 27  1  6  0  0  0
  9 28  1  0  0  0  0
 10 29  1  0  0  0  0
 11 30  1  0  0  0  0
A   14
Protein
A   15
Protein
A   16
Ubiquitins
M  END
