"a [glycine-cleavage complex H protein] N6-lipoyl-L-lysine"
  Mrv0541 01071509532D          

 46 46  0  0  0  0            999 V2000
  -10.9241    5.8929    0.0000 C   0  0  0  0  0  0  0  0  0  0  0  0
  -10.9241    5.0679    0.0000 C   0  0  0  0  0  0  0  0  0  0  0  0
  -13.0675    1.3554    0.0000 C   0  0  0  0  0  0  0  0  0  0  0  0
  -13.0675    2.1804    0.0000 C   0  0  0  0  0  0  0  0  0  0  0  0
  -13.7820    0.9429    0.0000 C   0  0  0  0  0  0  0  0  0  0  0  0
  -10.2096    6.3054    0.0000 C   0  0  0  0  0  0  0  0  0  0  0  0
  -11.6385    4.6554    0.0000 C   0  0  0  0  0  0  0  0  0  0  0  0
  -10.8770    7.6153    0.0000 C   0  0  0  0  0  0  0  0  0  0  0  0
  -12.3530    2.5929    0.0000 C   0  0  0  0  0  0  0  0  0  0  0  0
  -10.6221    8.3999    0.0000 C   0  0  0  0  0  0  0  0  0  0  0  0
  -13.0675   -0.2946    0.0000 C   0  0  0  0  0  0  0  0  0  0  0  0
  -13.7820    0.1179    0.0000 C   0  0  1  0  0  0  0  0  0  0  0  0
  -10.2096    7.1304    0.0000 C   0  0  1  0  0  0  0  0  0  0  0  0
  -11.6385    3.8304    0.0000 C   0  0  0  0  0  0  0  0  0  0  0  0
  -14.4964   -0.2946    0.0000 N   0  0  0  0  0  0  0  0  0  0  0  0
  -12.3530    3.4179    0.0000 N   0  0  0  0  0  0  0  0  0  0  0  0
  -13.0675   -1.1196    0.0000 O   0  0  0  0  0  0  0  0  0  0  0  0
  -10.9241    3.4179    0.0000 O   0  0  0  0  0  0  0  0  0  0  0  0
   -9.7971    8.3999    0.0000 S   0  0  0  0  0  0  0  0  0  0  0  0
   -9.5422    7.6153    0.0000 S   0  0  0  0  0  0  0  0  0  0  0  0
  -12.3530    0.1179    0.0000 A   0  0  0  0  0  0  0  0  0  0  0  0
  -15.2109    0.1179    0.0000 A   0  0  0  0  0  0  0  0  0  0  0  0
  -11.7486    5.9217    0.0000 H   0  0  0  0  0  0  0  0  0  0  0  0
  -11.3613    6.5925    0.0000 H   0  0  0  0  0  0  0  0  0  0  0  0
  -10.4869    4.3683    0.0000 H   0  0  0  0  0  0  0  0  0  0  0  0
  -10.0996    5.0391    0.0000 H   0  0  0  0  0  0  0  0  0  0  0  0
  -12.6303    0.6558    0.0000 H   0  0  0  0  0  0  0  0  0  0  0  0
  -12.2430    1.3266    0.0000 H   0  0  0  0  0  0  0  0  0  0  0  0
  -13.8920    2.2092    0.0000 H   0  0  0  0  0  0  0  0  0  0  0  0
  -13.5047    2.8800    0.0000 H   0  0  0  0  0  0  0  0  0  0  0  0
  -14.2192    1.6425    0.0000 H   0  0  0  0  0  0  0  0  0  0  0  0
  -14.6065    0.9717    0.0000 H   0  0  0  0  0  0  0  0  0  0  0  0
   -9.7724    5.6058    0.0000 H   0  0  0  0  0  0  0  0  0  0  0  0
   -9.3851    6.2766    0.0000 H   0  0  0  0  0  0  0  0  0  0  0  0
  -12.4630    4.6842    0.0000 H   0  0  0  0  0  0  0  0  0  0  0  0
  -12.0757    5.3550    0.0000 H   0  0  0  0  0  0  0  0  0  0  0  0
  -11.6857    7.7783    0.0000 H   0  0  0  0  0  0  0  0  0  0  0  0
  -11.4354    7.0080    0.0000 H   0  0  0  0  0  0  0  0  0  0  0  0
  -11.9158    1.8933    0.0000 H   0  0  0  0  0  0  0  0  0  0  0  0
  -11.5285    2.5641    0.0000 H   0  0  0  0  0  0  0  0  0  0  0  0
  -11.3722    8.7433    0.0000 H   0  0  0  0  0  0  0  0  0  0  0  0
  -10.7169    9.2194    0.0000 H   0  0  0  0  0  0  0  0  0  0  0  0
  -13.7820   -0.7071    0.0000 H   0  0  0  0  0  0  0  0  0  0  0  0
  -10.7616    6.5173    0.0000 H   0  0  0  0  0  0  0  0  0  0  0  0
  -14.4964   -1.1196    0.0000 H   0  0  0  0  0  0  0  0  0  0  0  0
  -13.0675    3.8304    0.0000 H   0  0  0  0  0  0  0  0  0  0  0  0
 12 15  1  1  0  0  0
 12 11  1  0  0  0  0
 11 21  1  0  0  0  0
  5  3  1  0  0  0  0
  3  4  1  0  0  0  0
 12  5  1  0  0  0  0
  4  9  1  0  0  0  0
  9 16  1  0  0  0  0
 16 14  1  0  0  0  0
 14  7  1  0  0  0  0
 14 18  2  0  0  0  0
  7  2  1  0  0  0  0
  2  1  1  0  0  0  0
  1  6  1  0  0  0  0
 13  6  1  1  0  0  0
  8 10  1  0  0  0  0
 10 19  1  0  0  0  0
 19 20  1  0  0  0  0
 13  8  1  0  0  0  0
 13 20  1  0  0  0  0
 15 22  1  0  0  0  0
 11 17  2  0  0  0  0
  1 23  1  0  0  0  0
  1 24  1  0  0  0  0
  2 25  1  0  0  0  0
  2 26  1  0  0  0  0
  3 27  1  0  0  0  0
  3 28  1  0  0  0  0
  4 29  1  0  0  0  0
  4 30  1  0  0  0  0
  5 31  1  0  0  0  0
  5 32  1  0  0  0  0
  6 33  1  0  0  0  0
  6 34  1  0  0  0  0
  7 35  1  0  0  0  0
  7 36  1  0  0  0  0
  8 37  1  0  0  0  0
  8 38  1  0  0  0  0
  9 39  1  0  0  0  0
  9 40  1  0  0  0  0
 10 41  1  0  0  0  0
 10 42  1  0  0  0  0
 12 43  1  6  0  0  0
 13 44  1  6  0  0  0
 15 45  1  0  0  0  0
 16 46  1  0  0  0  0
A   21
Glycine-Cleavage-Complex-H
A   22
Glycine-Cleavage-Complex-H
M  END
