"a protein L-beta-isoaspartate alpha-methyl ester"
  Mrv0541 01071510302D          

 18 17  0  0  0  0            999 V2000
   -1.2788    1.6227    0.0000 C   0  0  0  0  0  0  0  0  0  0  0  0
    0.1501   -0.8523    0.0000 C   0  0  0  0  0  0  0  0  0  0  0  0
    0.8646   -0.4398    0.0000 C   0  0  0  0  0  0  0  0  0  0  0  0
   -0.5643   -0.4398    0.0000 C   0  0  0  0  0  0  0  0  0  0  0  0
   -0.5643    0.3852    0.0000 C   0  0  0  0  0  0  0  0  0  0  0  0
   -1.2788   -0.8523    0.0000 N   0  0  0  0  0  0  0  0  0  0  0  0
    0.8646    0.3852    0.0000 O   0  0  0  0  0  0  0  0  0  0  0  0
    0.1501    0.7977    0.0000 O   0  0  0  0  0  0  0  0  0  0  0  0
   -1.2788    0.7977    0.0000 O   0  0  0  0  0  0  0  0  0  0  0  0
   -2.3214   -0.3794    0.0000 A   0  0  0  0  0  0  0  0  0  0  0  0
    1.5790   -0.8523    0.0000 A   0  0  0  0  0  0  0  0  0  0  0  0
   -0.4538    1.6227    0.0000 H   0  0  0  0  0  0  0  0  0  0  0  0
   -1.2788    2.4477    0.0000 H   0  0  0  0  0  0  0  0  0  0  0  0
   -2.1038    1.6227    0.0000 H   0  0  0  0  0  0  0  0  0  0  0  0
   -0.2372   -1.5807    0.0000 H   0  0  0  0  0  0  0  0  0  0  0  0
    0.5374   -1.5807    0.0000 H   0  0  0  0  0  0  0  0  0  0  0  0
   -0.5643   -1.2648    0.0000 H   0  0  0  0  0  0  0  0  0  0  0  0
   -1.2385   -1.6763    0.0000 H   0  0  0  0  0  0  0  0  0  0  0  0
  6 10  1  0  0  0  0
  4  6  1  0  0  0  0
  4  2  1  0  0  0  0
  5  4  1  0  0  0  0
  8  5  2  0  0  0  0
  5  9  1  0  0  0  0
  2  3  1  0  0  0  0
  3 11  1  0  0  0  0
  3  7  2  0  0  0  0
  9  1  1  0  0  0  0
  1 12  1  0  0  0  0
  1 13  1  0  0  0  0
  1 14  1  0  0  0  0
  2 15  1  0  0  0  0
  2 16  1  0  0  0  0
  4 17  1  0  0  0  0
  6 18  1  0  0  0  0
A   10
Protein
A   11
Protein
M  END
