"a [protein]-L-citrulline"
  Mrv0541 01071509372D          

 24 23  0  0  0  0            999 V2000
    0.6793    1.8197    0.0000 C   0  0  0  0  0  0  0  0  0  0  0  0
   -0.0313    1.4190    0.0000 C   0  0  0  0  0  0  0  0  0  0  0  0
    0.6764    2.6447    0.0000 C   0  0  0  0  0  0  0  0  0  0  0  0
    0.6817    0.1840    0.0000 C   0  0  0  0  0  0  0  0  0  0  0  0
   -0.0342    0.5940    0.0000 C   0  0  1  0  0  0  0  0  0  0  0  0
    1.3841    3.8704    0.0000 C   0  0  0  0  0  0  0  0  0  0  0  0
   -0.7346    0.1896    0.0000 N   0  0  0  0  0  0  0  0  0  0  0  0
    2.1000    4.2804    0.0000 N   0  0  0  0  0  0  0  0  0  0  0  0
    1.3923    3.0546    0.0000 N   0  0  0  0  0  0  0  0  0  0  0  0
    0.6735   -0.6318    0.0000 O   0  0  0  0  0  0  0  0  0  0  0  0
    0.6744    4.2801    0.0000 O   0  0  0  0  0  0  0  0  0  0  0  0
    1.3914    0.5937    0.0000 A   0  0  0  0  0  0  0  0  0  0  0  0
   -1.4491    0.6021    0.0000 A   0  0  0  0  0  0  0  0  0  0  0  0
    1.5038    1.7895    0.0000 H   0  0  0  0  0  0  0  0  0  0  0  0
    1.1130    1.1179    0.0000 H   0  0  0  0  0  0  0  0  0  0  0  0
   -0.8556    1.4528    0.0000 H   0  0  0  0  0  0  0  0  0  0  0  0
   -0.4631    2.1220    0.0000 H   0  0  0  0  0  0  0  0  0  0  0  0
    0.2398    3.3447    0.0000 H   0  0  0  0  0  0  0  0  0  0  0  0
   -0.1481    2.6729    0.0000 H   0  0  0  0  0  0  0  0  0  0  0  0
   -0.0327   -0.2310    0.0000 H   0  0  0  0  0  0  0  0  0  0  0  0
   -0.7346   -0.6354    0.0000 H   0  0  0  0  0  0  0  0  0  0  0  0
    2.8130    3.8654    0.0000 H   0  0  0  0  0  0  0  0  0  0  0  0
    2.1029    5.1054    0.0000 H   0  0  0  0  0  0  0  0  0  0  0  0
    2.1081    2.6444    0.0000 H   0  0  0  0  0  0  0  0  0  0  0  0
 11  6  2  0  0  0  0
  4  5  1  0  0  0  0
  5  7  1  1  0  0  0
  8  6  1  0  0  0  0
 10  4  2  0  0  0  0
  9  6  1  0  0  0  0
  2  5  1  0  0  0  0
 12  4  1  0  0  0  0
  3  9  1  0  0  0  0
  1  3  1  0  0  0  0
  1  2  1  0  0  0  0
  7 13  1  0  0  0  0
  1 14  1  0  0  0  0
  1 15  1  0  0  0  0
  2 16  1  0  0  0  0
  2 17  1  0  0  0  0
  3 18  1  0  0  0  0
  3 19  1  0  0  0  0
  5 20  1  6  0  0  0
  7 21  1  0  0  0  0
  8 22  1  0  0  0  0
  8 23  1  0  0  0  0
  9 24  1  0  0  0  0
A   12
Protein
A   13
Protein
M  END
