"a [protein] c-terminal S-farnesyl-L-cysteine"
  Mrv0541 01061516402D          

 52 51  0  0  0  0            999 V2000
   10.6135    2.5723    0.0000 C   0  0  0  0  0  0  0  0  0  0  0  0
    9.1846    2.5723    0.0000 C   0  0  0  0  0  0  0  0  0  0  0  0
    7.7556    0.0973    0.0000 C   0  0  0  0  0  0  0  0  0  0  0  0
    6.3267   -2.3777    0.0000 C   0  0  0  0  0  0  0  0  0  0  0  0
    9.1846    0.9223    0.0000 C   0  0  0  0  0  0  0  0  0  0  0  0
    7.7556   -1.5527    0.0000 C   0  0  0  0  0  0  0  0  0  0  0  0
    9.8990    1.3348    0.0000 C   0  0  0  0  0  0  0  0  0  0  0  0
    9.1846    0.0973    0.0000 C   0  0  0  0  0  0  0  0  0  0  0  0
    8.4701   -1.1402    0.0000 C   0  0  0  0  0  0  0  0  0  0  0  0
    7.7556   -2.3777    0.0000 C   0  0  0  0  0  0  0  0  0  0  0  0
    7.0412   -3.6152    0.0000 C   0  0  0  0  0  0  0  0  0  0  0  0
    6.3267   -4.0277    0.0000 C   0  0  0  0  0  0  0  0  0  0  0  0
    5.6122   -5.2652    0.0000 C   0  0  0  0  0  0  0  0  0  0  0  0
    9.8990    2.1598    0.0000 C   0  0  0  0  0  0  0  0  0  0  0  0
    8.4701   -0.3152    0.0000 C   0  0  0  0  0  0  0  0  0  0  0  0
    7.0412   -2.7902    0.0000 C   0  0  0  0  0  0  0  0  0  0  0  0
    5.6122   -6.0902    0.0000 C   0  0  1  0  0  0  0  0  0  0  0  0
    6.3267   -6.5027    0.0000 C   0  0  0  0  0  0  0  0  0  0  0  0
    4.8977   -6.5027    0.0000 N   0  0  0  0  0  0  0  0  0  0  0  0
    6.3267   -7.3277    0.0000 O   0  0  0  0  0  0  0  0  0  0  0  0
    7.0412   -6.0902    0.0000 O   0  5  0  0  0  0  0  0  0  0  0  0
    6.3267   -4.8527    0.0000 S   0  0  0  0  0  0  0  0  0  0  0  0
    4.1833   -6.0902    0.0000 A   0  0  0  0  0  0  0  0  0  0  0  0
   11.0260    1.8578    0.0000 H   0  0  0  0  0  0  0  0  0  0  0  0
   11.3280    2.9848    0.0000 H   0  0  0  0  0  0  0  0  0  0  0  0
   10.2010    3.2868    0.0000 H   0  0  0  0  0  0  0  0  0  0  0  0
    9.5971    3.2868    0.0000 H   0  0  0  0  0  0  0  0  0  0  0  0
    8.4701    2.9848    0.0000 H   0  0  0  0  0  0  0  0  0  0  0  0
    8.7721    1.8578    0.0000 H   0  0  0  0  0  0  0  0  0  0  0  0
    8.1681    0.8118    0.0000 H   0  0  0  0  0  0  0  0  0  0  0  0
    7.0411    0.5098    0.0000 H   0  0  0  0  0  0  0  0  0  0  0  0
    7.3431   -0.6172    0.0000 H   0  0  0  0  0  0  0  0  0  0  0  0
    6.7392   -1.6632    0.0000 H   0  0  0  0  0  0  0  0  0  0  0  0
    5.6122   -1.9652    0.0000 H   0  0  0  0  0  0  0  0  0  0  0  0
    5.9142   -3.0922    0.0000 H   0  0  0  0  0  0  0  0  0  0  0  0
    8.4093    1.2045    0.0000 H   0  0  0  0  0  0  0  0  0  0  0  0
    8.5526    1.4526    0.0000 H   0  0  0  0  0  0  0  0  0  0  0  0
    6.9804   -1.2705    0.0000 H   0  0  0  0  0  0  0  0  0  0  0  0
    7.1236   -1.0224    0.0000 H   0  0  0  0  0  0  0  0  0  0  0  0
   10.6135    0.9223    0.0000 H   0  0  0  0  0  0  0  0  0  0  0  0
    9.6218   -0.6023    0.0000 H   0  0  0  0  0  0  0  0  0  0  0  0
   10.0091    0.0685    0.0000 H   0  0  0  0  0  0  0  0  0  0  0  0
    9.1846   -1.5527    0.0000 H   0  0  0  0  0  0  0  0  0  0  0  0
    8.1928   -3.0773    0.0000 H   0  0  0  0  0  0  0  0  0  0  0  0
    8.5801   -2.4065    0.0000 H   0  0  0  0  0  0  0  0  0  0  0  0
    7.7557   -4.0277    0.0000 H   0  0  0  0  0  0  0  0  0  0  0  0
    5.5022   -3.9989    0.0000 H   0  0  0  0  0  0  0  0  0  0  0  0
    5.6947   -3.4974    0.0000 H   0  0  0  0  0  0  0  0  0  0  0  0
    4.7877   -5.2364    0.0000 H   0  0  0  0  0  0  0  0  0  0  0  0
    5.1750   -4.5656    0.0000 H   0  0  0  0  0  0  0  0  0  0  0  0
    5.6122   -6.9152    0.0000 H   0  0  0  0  0  0  0  0  0  0  0  0
    4.8977   -7.3277    0.0000 H   0  0  0  0  0  0  0  0  0  0  0  0
 17 19  1  1  0  0  0
 18 17  1  0  0  0  0
 13 17  1  0  0  0  0
 18 20  2  0  0  0  0
 19 23  1  0  0  0  0
 18 21  1  0  0  0  0
 13 22  1  0  0  0  0
 22 12  1  0  0  0  0
 12 11  1  0  0  0  0
 11 16  2  0  0  0  0
 16 10  1  0  0  0  0
 10  6  1  0  0  0  0
  6  9  1  0  0  0  0
  9 15  2  0  0  0  0
 15  8  1  0  0  0  0
  8  5  1  0  0  0  0
  5  7  1  0  0  0  0
  7 14  2  0  0  0  0
 14  1  1  0  0  0  0
 14  2  1  0  0  0  0
 15  3  1  0  0  0  0
 16  4  1  0  0  0  0
  1 24  1  0  0  0  0
  1 25  1  0  0  0  0
  1 26  1  0  0  0  0
  2 27  1  0  0  0  0
  2 28  1  0  0  0  0
  2 29  1  0  0  0  0
  3 30  1  0  0  0  0
  3 31  1  0  0  0  0
  3 32  1  0  0  0  0
  4 33  1  0  0  0  0
  4 34  1  0  0  0  0
  4 35  1  0  0  0  0
  5 36  1  0  0  0  0
  5 37  1  0  0  0  0
  6 38  1  0  0  0  0
  6 39  1  0  0  0  0
  7 40  1  0  0  0  0
  8 41  1  0  0  0  0
  8 42  1  0  0  0  0
  9 43  1  0  0  0  0
 10 44  1  0  0  0  0
 10 45  1  0  0  0  0
 11 46  1  0  0  0  0
 12 47  1  0  0  0  0
 12 48  1  0  0  0  0
 13 49  1  0  0  0  0
 13 50  1  0  0  0  0
 17 51  1  6  0  0  0
 19 52  1  0  0  0  0
A   23
Protein
M  CHG  1  21  -1
M  END
