"a [protein]-L-beta-isoaspartate"
  Mrv0541 01061519142D          

 14 13  0  0  0  0            999 V2000
    0.1501   -0.8523    0.0000 C   0  0  0  0  0  0  0  0  0  0  0  0
    0.8646   -0.4398    0.0000 C   0  0  0  0  0  0  0  0  0  0  0  0
   -0.5643   -0.4398    0.0000 C   0  0  0  0  0  0  0  0  0  0  0  0
   -0.5643    0.3852    0.0000 C   0  0  0  0  0  0  0  0  0  0  0  0
   -1.2788   -0.8523    0.0000 N   0  0  0  0  0  0  0  0  0  0  0  0
    0.8646    0.3852    0.0000 O   0  0  0  0  0  0  0  0  0  0  0  0
    0.1501    0.7977    0.0000 O   0  0  0  0  0  0  0  0  0  0  0  0
   -1.2788    0.7977    0.0000 O   0  5  0  0  0  0  0  0  0  0  0  0
   -2.3214   -0.3794    0.0000 A   0  0  0  0  0  0  0  0  0  0  0  0
    1.5790   -0.8523    0.0000 A   0  0  0  0  0  0  0  0  0  0  0  0
   -0.2372   -1.5807    0.0000 H   0  0  0  0  0  0  0  0  0  0  0  0
    0.5374   -1.5807    0.0000 H   0  0  0  0  0  0  0  0  0  0  0  0
    0.2562   -0.3536    0.0000 H   0  0  0  0  0  0  0  0  0  0  0  0
   -1.2385   -1.6763    0.0000 H   0  0  0  0  0  0  0  0  0  0  0  0
  5  9  1  0  0  0  0
  3  5  1  0  0  0  0
  3  1  1  0  0  0  0
  4  3  1  0  0  0  0
  7  4  2  0  0  0  0
  4  8  1  0  0  0  0
  1  2  1  0  0  0  0
  2 10  1  0  0  0  0
  2  6  2  0  0  0  0
  1 11  1  0  0  0  0
  1 12  1  0  0  0  0
  3 13  1  0  0  0  0
  5 14  1  0  0  0  0
A    9
Protein
A   10
Protein
M  CHG  1   8  -1
M  END
