"a [protein]-L-beta-isoaspartate"
  biocyc  1008141303

 10  9  0  0  0  0  0  0  0  0999 V2000
   64.5946 -366.7820    0.0000 C   0  0  0  0  0  0  0
  372.0752 -189.2652    0.0000 C   0  0  0  0  0  0  0
 -242.8430 -189.2652    0.0000 C   0  0  0  0  0  0  0
 -242.8430  165.7684    0.0000 C   0  0  0  0  0  0  0
 -550.3236 -366.7820    0.0000 N   0  0  0  0  0  0  0
  372.0752  165.7684    0.0000 O   0  0  0  0  0  0  0
   64.5946  343.2852    0.0000 O   0  0  0  0  0  0  0
 -550.3236  343.2852    0.0000 O   0  5  0  0  0  0  0
 -999.0000 -163.2724    0.0000 A   0  0  0  0  0  0  0
  679.5128 -366.7820    0.0000 A   0  0  0  0  0  0  0
  5  9  1  0  0  0  0
  3  5  1  0  0  0  0
  3  1  1  0  0  0  0
  4  3  1  0  0  0  0
  7  4  2  0  0  0  0
  4  8  1  0  0  0  0
  1  2  1  0  0  0  0
  2 10  1  0  0  0  0
  2  6  2  0  0  0  0
M  CHG  1   8  -1
A   10
Protein
A    9
Protein
M  END
