"a protein L-beta-isoaspartate alpha-methyl ester"
  biocyc  1008141303

 11 10  0  0  0  0  0  0  0  0999 V2000
 -550.3236  698.3188    0.0000 C   0  0  0  0  0  0  0
   64.5946 -366.7820    0.0000 C   0  0  0  0  0  0  0
  372.0752 -189.2652    0.0000 C   0  0  0  0  0  0  0
 -242.8430 -189.2652    0.0000 C   0  0  0  0  0  0  0
 -242.8430  165.7684    0.0000 C   0  0  0  0  0  0  0
 -550.3236 -366.7820    0.0000 N   0  0  0  0  0  0  0
  372.0752  165.7684    0.0000 O   0  0  0  0  0  0  0
   64.5946  343.2852    0.0000 O   0  0  0  0  0  0  0
 -550.3236  343.2852    0.0000 O   0  0  0  0  0  0  0
 -999.0000 -163.2724    0.0000 A   0  0  0  0  0  0  0
  679.5128 -366.7820    0.0000 A   0  0  0  0  0  0  0
  6 10  1  0  0  0  0
  4  6  1  0  0  0  0
  4  2  1  0  0  0  0
  5  4  1  0  0  0  0
  8  5  2  0  0  0  0
  5  9  1  0  0  0  0
  2  3  1  0  0  0  0
  3 11  1  0  0  0  0
  3  7  2  0  0  0  0
  9  1  1  0  0  0  0
A   11
Protein
A   10
Protein
M  END
