"a [protein] c-terminal S-farnesyl-L-cysteine"
  biocyc  1008141303

 23 22  0  0  0  0  0  0  0  0999 V2000
  999.0001  242.1188    0.0000 C   0  0  0  0  0  0  0
  864.5043  242.1188    0.0000 C   0  0  0  0  0  0  0
  729.9990    9.1584    0.0000 C   0  0  0  0  0  0  0
  595.5032 -223.8020    0.0000 C   0  0  0  0  0  0  0
  864.5043   86.8119    0.0000 C   0  0  0  0  0  0  0
  729.9990 -146.1485    0.0000 C   0  0  0  0  0  0  0
  931.7474  125.6386    0.0000 C   0  0  0  0  0  0  0
  864.5043    9.1584    0.0000 C   0  0  0  0  0  0  0
  797.2516 -107.3218    0.0000 C   0  0  0  0  0  0  0
  729.9990 -223.8020    0.0000 C   0  0  0  0  0  0  0
  662.7559 -340.2822    0.0000 C   0  0  0  0  0  0  0
  595.5032 -379.1089    0.0000 C   0  0  0  0  0  0  0
  528.2506 -495.5891    0.0000 C   0  0  0  0  0  0  0
  931.7474  203.2921    0.0000 C   0  0  0  0  0  0  0
  797.2516  -29.6683    0.0000 C   0  0  0  0  0  0  0
  662.7559 -262.6287    0.0000 C   0  0  0  0  0  0  0
  528.2506 -573.2426    0.0000 C   0  0  0  0  0  0  0
  595.5032 -612.0693    0.0000 C   0  0  0  0  0  0  0
  460.9980 -612.0693    0.0000 N   0  0  0  0  0  0  0
  595.5032 -689.7228    0.0000 O   0  0  0  0  0  0  0
  662.7559 -573.2426    0.0000 O   0  5  0  0  0  0  0
  595.5032 -456.7624    0.0000 S   0  0  0  0  0  0  0
  393.7548 -573.2426    0.0000 A   0  0  0  0  0  0  0
 17 19  1  1  0  0  0
 18 17  1  0  0  0  0
 13 17  1  0  0  0  0
 18 20  2  0  0  0  0
 19 23  1  0  0  0  0
 18 21  1  0  0  0  0
 13 22  1  0  0  0  0
 22 12  1  0  0  0  0
 12 11  1  0  0  0  0
 11 16  2  0  0  0  0
 16 10  1  0  0  0  0
 10  6  1  0  0  0  0
  6  9  1  0  0  0  0
  9 15  2  0  0  0  0
 15  8  1  0  0  0  0
  8  5  1  0  0  0  0
  5  7  1  0  0  0  0
  7 14  2  0  0  0  0
 14  1  1  0  0  0  0
 14  2  1  0  0  0  0
 15  3  1  0  0  0  0
 16  4  1  0  0  0  0
M  CHG  1  21  -1
A   23
Protein
M  END
