"a [protein]-L-citrulline"
  biocyc  1008141303

 13 12  0  0  0  0  0  0  0  0999 V2000
  158.5414  424.6987    0.0000 C   0  0  0  0  0  0  0
   -7.3051  331.1796    0.0000 C   0  0  0  0  0  0  0
  157.8646  617.2450    0.0000 C   0  0  0  0  0  0  0
  159.1016   42.9437    0.0000 C   0  0  0  0  0  0  0
   -7.9819  138.6333    0.0000 C   0  0  0  0  0  0  0
  323.0343  903.3104    0.0000 C   0  0  0  0  0  0  0
 -171.4479   44.2506    0.0000 N   0  0  0  0  0  0  0
  490.1178  999.0001    0.0000 N   0  0  0  0  0  0  0
  324.9481  712.9113    0.0000 N   0  0  0  0  0  0  0
  157.1878 -147.4554    0.0000 O   0  0  0  0  0  0  0
  157.3978  998.9300    0.0000 O   0  0  0  0  0  0  0
  324.7380  138.5633    0.0000 A   0  0  0  0  0  0  0
 -338.2046  140.5238    0.0000 A   0  0  0  0  0  0  0
 11  6  2  0  0  0  0
  4  5  1  0  0  0  0
  5  7  1  1  0  0  0
  8  6  1  0  0  0  0
 10  4  2  0  0  0  0
  9  6  1  0  0  0  0
  2  5  1  0  0  0  0
 12  4  1  0  0  0  0
  3  9  1  0  0  0  0
  1  3  1  0  0  0  0
  1  2  1  0  0  0  0
  7 13  1  0  0  0  0
A   13
Protein
A   12
Protein
M  END
