"a [glycine-cleavage complex H protein] N6-lipoyl-L-lysine"
  biocyc  1008141303

 22 22  0  0  0  0  0  0  0  0999 V2000
 -717.4576  387.0256    0.0000 C   0  0  0  0  0  0  0
 -717.4576  332.8424    0.0000 C   0  0  0  0  0  0  0
 -858.2288   89.0180    0.0000 C   0  0  0  0  0  0  0
 -858.2288  143.2012    0.0000 C   0  0  0  0  0  0  0
 -905.1547   61.9265    0.0000 C   0  0  0  0  0  0  0
 -670.5317  414.1172    0.0000 C   0  0  0  0  0  0  0
 -764.3770  305.7508    0.0000 C   0  0  0  0  0  0  0
 -714.3643  500.1469    0.0000 C   0  0  0  0  0  0  0
 -811.3029  170.2928    0.0000 C   0  0  0  0  0  0  0
 -697.6233  551.6768    0.0000 C   0  0  0  0  0  0  0
 -858.2288  -19.3483    0.0000 C   0  0  0  0  0  0  0
 -905.1547    7.7433    0.0000 C   0  0  0  0  0  0  0
 -670.5317  468.3004    0.0000 C   0  0  0  0  0  0  0
 -764.3770  251.5676    0.0000 C   0  0  0  0  0  0  0
 -952.0741  -19.3483    0.0000 N   0  0  0  0  0  0  0
 -811.3029  224.4760    0.0000 N   0  0  0  0  0  0  0
 -858.2288  -73.5315    0.0000 O   0  0  0  0  0  0  0
 -717.4576  224.4760    0.0000 O   0  0  0  0  0  0  0
 -643.4401  551.6768    0.0000 S   0  0  0  0  0  0  0
 -626.6992  500.1469    0.0000 S   0  0  0  0  0  0  0
 -811.3029    7.7433    0.0000 A   0  0  0  0  0  0  0
 -999.0000    7.7433    0.0000 A   0  0  0  0  0  0  0
 12 15  1  1  0  0  0
 12 11  1  0  0  0  0
 11 21  1  0  0  0  0
  5  3  1  0  0  0  0
  3  4  1  0  0  0  0
 12  5  1  0  0  0  0
  4  9  1  0  0  0  0
  9 16  1  0  0  0  0
 16 14  1  0  0  0  0
 14  7  1  0  0  0  0
 14 18  2  0  0  0  0
  7  2  1  0  0  0  0
  2  1  1  0  0  0  0
  1  6  1  0  0  0  0
 13  6  1  1  0  0  0
  8 10  1  0  0  0  0
 10 19  1  0  0  0  0
 19 20  1  0  0  0  0
 13  8  1  0  0  0  0
 13 20  1  0  0  0  0
 15 22  1  0  0  0  0
 11 17  2  0  0  0  0
A   22
Glycine-Cleavage-Complex-H
A   21
Glycine-Cleavage-Complex-H
M  END
