"an N6-ubiquitinyl-[protein]-L-lysine"
  biocyc  1008141303

 16 15  0  0  0  0  0  0  0  0999 V2000
   77.5546  -12.1019    0.0000 C   0  0  0  0  0  0  0
   77.5546  180.2691    0.0000 C   0  0  0  0  0  0  0
  -89.0503 -108.2874    0.0000 C   0  0  0  0  0  0  0
  244.1363  276.4546    0.0000 C   0  0  0  0  0  0  0
  589.2848  444.2720    0.0000 C   0  0  0  0  0  0  0
   77.2282 -396.2609    0.0000 C   0  0  0  0  0  0  0
  -89.7265 -300.7050    0.0000 C   0  0  0  0  0  0  0
  422.7032  540.4808    0.0000 C   0  0  0  0  0  0  0
  755.9130  540.4808    0.0000 N   0  0  0  0  0  0  0
 -252.9970 -394.9784    0.0000 N   0  0  0  0  0  0  0
  244.1363  468.8256    0.0000 N   0  0  0  0  0  0  0
   75.2928 -586.5100    0.0000 O   0  0  0  0  0  0  0
  422.7032  732.8052    0.0000 O   0  0  0  0  0  0  0
  243.8331 -300.0754    0.0000 A   0  0  0  0  0  0  0
 -419.6019 -298.7929    0.0000 A   0  0  0  0  0  0  0
  999.0000  430.1881    0.0000 A   0  0  0  0  0  0  0
  3  7  1  0  0  0  0
 12  6  2  0  0  0  0
  7 10  1  1  0  0  0
  6  7  1  0  0  0  0
  6 14  1  0  0  0  0
 10 15  1  0  0  0  0
  3  1  1  0  0  0  0
  1  2  1  0  0  0  0
  2  4  1  0  0  0  0
  4 11  1  0  0  0  0
  5  8  1  0  0  0  0
  8 11  1  0  0  0  0
  8 13  2  0  0  0  0
  5  9  1  0  0  0  0
  9 16  1  0  0  0  0
A   16
Ubiquitins
A   15
Protein
A   14
Protein
M  END
